<mjloggm ver="2.3"><SHUFFLE seed="mt19937ar-sha512-n288-base64,1MNJ+FoRiCVGXt+eZ+gTm6yZ4yPwkbNAss2xc5Qak/lqPtDip5LbHPqpOFUEJclzCfQti0Ubg1x/y/0BtXq1PGb4KRn/YTXyKzXTz1/K1FxGO5aK5JSbq1DwlYsk+ZS2F6IO618WwcpTyuEDLC/4VYIGm9uy8sL/KKPwz6EFf0TSWOidt4NLcqmRWq4jIDsBzM8yOhb+sR4iDMXDIj+QsQNT6qE4kwkDsX1NQtLFEbu3BCuwzLESppeUxCR5o+oTwsBiVvI534/rfJy/OqfLh7BQJKV3gP/wT5O7ZHFInnuQkTuR9ILteTfCKmwonBqYV1DYbFGLPhaO/CoBJph3CX/UkaYTozMnCEWrN9/E5Ik4nNy4LBCVZi2ckNpn6n1bEW+kjNbJyKsbxOYJ3CnIlz/I6d34v2MYCqC5eDtWas1XGCvE7ArI43+cvfLNZiGt78n8hs+YYmHPlNk3BZE2x1KuuP2dCLATGPL3DUCApbThbcrYkwiFNKB7tqip5ZoTQDz2UcUCmYwVrjLDSTZiqmmbF4g4u4RVUSlYKRKUREvu980/yj2vd4OXOGryOiQC6MgGwq7BB4rq3Eq9uA8haolw8dDTIoYGYt2fGa4Tr8n5e+TY3aUo924Bav63I6PbeL3IV5diwjydwu6W1iCEb5e/7eZz6OgV/HVuPODAlk62If6EqJP2h+6T8U27/6EJBemDruFR0gF2zuOJSxbuJwJGXqOcyONmFJbRHOlnx8km9A5FJdtqBn9+U7omZ/s8Hopb+5Qgir5aTeV0zIP/JMGwpSX+i/7t+zkr2j2UQlRJ0/Dre+DZG4eVjMUmVd2TnCPCK/MT3Dlu4927llI32ckZWBYTh2lAkiJeSUfTES09hsEwy6VRpnmUHCTSXiFnFd7/OSCePYB2dHIWoEDJxRBOu+NmiJ8mwLtFN3DX6mKPBXtXS7oyPJH4UzN6/gXORGE0rFiQz0c7aJOqpSq+xiQYjau1xPGyp3tuWwvjOFi3jxXu/Kd79AcRsFw8HyTOWryaHIMbFt6vGJEhQ7taAJE6ClfUzB6Lh7krAuWMWuMWM7EJBeeSb5TE+wF0LImo/QwXsvuwzMyq0o8rbmLVHpciPv1SzBozPqvhirPeqHBi6nDiOl+6adOjVyClpFf9E21qaAdBOmnDK6R/naEYN96hxpaOMd0Lh+50akrt2vdaJ7j+zO4JfHqQ9kkomg97+FG4tbwZzEdC/vK5KUMTXdITaTHe9W7rY7uX5ZGf+uSgZnIe60oxmKUYX4xE4DH+g20yu6YyjTh5oHH7DYa7zsnVH44gFKk77lXYUwMG7ORb4c57p6sOoyondU0Iz1eflt39X2PJp3kZWoEWahm+Iy9qkSpQm+7Q+kQM6FCwyqLQvL7cLfysIgWDXHHePdJVXbQp/4LXgPk5fE2vZIN9UwiJyzAcQmtbo+8HHk9qHIWQR1a4xnoALk59QTPwwofbJqp8p7WMIyrNyAMWwmFYyTkmXU4RYaDZ/3UZnX+HG60I4RMLQZjfGJfkosTi04UhPH5n3cQAVzKXswcADmF1YuJKSwJqzeVqvbDNPkKXu34453gfPKkRDf+BQnoss8SY3PA9K/lHUpdxW93IpqPOPhc5k7hzKNuQlAdmsaUa8das/vMx6jq0RUT1C4rP7cqOHpdf23tsvMoaptGyZ2SJqS+vuyL6zFqJLE0ZwE9I8Aa0aDz8cfwtZcbTVc5vTpO+7qoR5KrJF5/ECRt+XZndWMT0iovDJAA7QyC3vMC05oX9GdY4EROxnZ0ZGTBnug/HxBBkVaoofyjUakFeRFYG3W4wvU8k9OuXkFPwjljkjX17WFKRd3/5dAizDXfPXgMZYiPi0nkCZ6R15VC0mEyV3zewEOsiHNhEf1ABGkMp/M8GI7yPq5Zm4WB5O30JRw1nYFMdm0u6nXqgU3zCNblvfAwg7Pw6FWmFXMkKX9jd6K52gZLUt0QpMsQ4L578kJ+N3A6AuUYUcifvC+kG5oS3ajsNOK3++fhVEpulqXUpi48V172sqUTitFaRAg9ncZC51nUw7i4CohUJbTOKzqf7P8DdKDpEkLDg5hoeOZ3MyCHNuckYLiB2fwfbm9fKuqM8wgtNvmKs/3RQqbHQmmoT0HwC3gvDZz4wSSbp1hP31Z8zHz7iEC92GPLIuiy191sZ5E46f1WjP4O9RtH0U+SuKKsSoLT+N863R5swmxmW9TJhOg8J+aeUlOEVpwm62saIMwTX6XhNv26GMfXgzFOCnVYf0i1MQuJy3fdAT4UQDd2TpdLkHvvAmhHE9g44WaYFyPz6mf9nLZy1XZpcZU2wglX/o0AMGrTw6WY0lPbDOs5l2ra1XYVG8mSJWhXNcWhD9deR1x/BkX+p56NIwYlZ4Z1j27epjGZSS2XNi5a5mtJVuotHJpynd048jOHX1qHb1aSEuwJjznyDa8TpAccGHpzoRzHhV2ynAAaBn+LSaLq7px8TcRXNJL1uuAQDZtOU4MMCpfIqsEge0+5IHaZdSCBXwdhoPI9JB+75SsgZz2XFl7OLcZLrTTpREsbIFH2vSxtNgllV1fXPiUgjDTW5vjU/u79z1TjQA8M7hJTKiY4wmxU+e50SqsylYpZGDhialhPTUwziZs96FzCGJ5PfUIjC2cpODu4Ul8h61B0/jLSiXkOKK5aNblP8rP7Lf1a5q6DJuQU1iuRpbSMmOs35EaA1gZA4PGbc5An+qQvqNX5FOFqnbD2LI8n6m7sAbf6p/eAWG5E+901jTMaUvRHfrUPPUGo49pIVlZ+Rz7YV0f2mcjLqysvQY/6/lbXo/NkIqyaZCEzstZZm8b+SW/Mdn4W2WBO+LO/EqUuuSNTAfm3HIWQHar5CVRGeknyfS3YLoY6mTUHFgWPH45GNE3NjgtVUmB1/vKyYfUXV1ZpmsDarcwfqJI2nxcKhzSeQNy0GjzMQpscGJ3ZGo9KvkvH+k6Ve4fzrg4IG7Qb96jvoDXG95PbzNpt3AUWbdRpio6nLtpDLDgNPiOebgkLwnfuK0qZiDjPhwXI7YwLLaFPYK7TDZrR18pRL9xl6zYd4sZA/HUJnBTSPjM4omqWjc6ELOCSzBYif5Qn8pXJoIyV0MvPxa9Tw418JLxKoJoT5eLYy+ZppeYQ4BZxvjIp+1yo/kOa0Ogt9+2DufY5tIxKYlqiK9fdb6ySvVqqu+RCtzk8xzw/Wo1FNc4WB0VbedvMVp5FJGiYI353KiJENM/CBNkFOrMiGSJCprPlRupvbfYtH1Dff0URfXcNkYKQ4qjv+QXmNKEwHuofTzSCExfu5X/7bw0cq8Fd6tIMF6+zlf0aI" ref=""/><GO type="169" lobby="0"/><UN n0="%E5%9B%BD%E5%A3%AB%E7%84%A1%E6%95%B5" n1="%54%43%54" n2="%E3%83%88%E3%83%88%E3%83%AA%E5%85%88%E7%94%9F%31%39%E6%AD%B3" n3="%E3%83%8B%E3%83%A3%E3%83%83%E3%83%94%E3%83%BC%E5%A4%8F%E7%9B%AE" dan="16,18,19,19" rate="2091.48,2238.09,2287.51,2248.36" sx="M,M,F,M"/><TAIKYOKU oya="0"/><INIT seed="0,0,0,5,4,19" ten="250,250,250,250" oya="0" hai0="27,83,114,16,63,106,92,13,68,78,134,79,88" hai1="23,125,45,62,95,89,104,121,119,100,54,98,32" hai2="82,65,29,81,15,14,127,40,2,22,37,111,115" hai3="129,48,131,64,8,59,3,130,46,11,53,43,76"/><T103/><D114/><U12/><E32/><V55/><F2/><W42/><G76/><T126/><D27/><U96/><E119/><V72/><F115/><W74/><G74/><T69/><D134/><U117/><E117/><V77/><F111/><W56/><G3/><T108/><D126/><U118/><E118/><V61/><F127/><W24/><G24/><T28/><D28/><U9/><E125/><V112/><F112/><W135/><G8/><T58/><D108/><U90/><E121/><V1/><F1/><W75/><G11/><T57/><D106/><U66/><E45/><V31/><F55/><W123/><G75/><T80/><D103/><U73/><E73/><V39/><F81/><N who="0" m="31306" /><D69/><U41/><E54/><V18/><F15/><W133/><G123/><T21/><D68/><U70/><E41/><N who="3" m="15370" /><G64/><N who="0" m="39023" /><D58/><AGARI ba="0,0" hai="46,48,53,56,58,59,129,130,131,133,135" m="15370" machi="58" ten="40,5200,0" yaku="19,1,34,2" doraHai="19" who="3" fromWho="0" sc="250,-52,250,0,250,0,250,52" /><INIT seed="1,0,0,4,3,11" ten="198,250,250,302" oya="1" hai0="17,123,1,29,126,3,13,118,128,12,117,39,35" hai1="84,68,62,121,49,120,6,99,98,135,30,7,57" hai2="38,100,36,89,114,27,111,60,103,75,90,66,26" hai3="92,47,0,52,87,96,14,131,79,76,125,91,81"/><U94/><E135/><V77/><F111/><W64/><G0/><N who="0" m="75" /><D39/><U33/><E68/><V113/><F77/><W119/><G131/><T61/><D61/><U23/><E33/><V46/><F46/><W63/><G125/><T21/><D128/><U22/><E49/><V65/><REACH who="2" step="1"/><F60/><REACH who="2" ten="198,250,240,302" step="2"/><W42/><G79/><T40/><D126/><U73/><E62/><V107/><F107/><W132/><G132/><T53/><D123/><U25/><E120/><V44/><F44/><W54/><G119/><N who="0" m="45579" /><D40/><U71/><E121/><V56/><F56/><N who="3" m="36967" /><G47/><T43/><D43/><U20/><E57/><V95/><F95/><W85/><G42/><T9/><D53/><U122/><E122/><V15/><F15/><W59/><G14/><N who="0" m="9399" /><D9/><U80/><E71/><V83/><F83/><N who="3" m="49599" /><G59/><T2/><N who="0" m="83" /><T124/><DORA hai="50" /><D124/><U110/><E80/><V129/><F129/><W10/><G10/><T16/><D16/><U108/><E110/><V5/><F5/><W112/><G92/><T82/><D82/><U104/><E108/><V70/><F70/><W48/><G81/><T34/><D35/><U58/><E58/><V72/><AGARI ba="0,1" hai="26,27,36,38,65,66,72,75,89,90,100,103,113,114" machi="72" ten="25,6400,0" yaku="1,1,0,1,22,2,53,0" doraHai="11,50" doraHaiUra="18,37" who="2" fromWho="2" sc="198,-16,250,-32,240,74,302,-16" /><INIT seed="2,0,0,0,1,27" ten="182,218,314,286" oya="2" hai0="1,61,74,120,117,118,10,106,75,30,15,83,113" hai1="96,71,2,92,6,127,36,122,115,58,64,82,66" hai2="86,25,57,105,94,70,130,100,102,95,135,93,32" hai3="47,119,116,126,50,33,43,17,11,91,133,46,112"/><V41/><F130/><W114/><G33/><T131/><D131/><U48/><E115/><N who="3" m="44074" /><G133/><T22/><D113/><U90/><E36/><V129/><F129/><W5/><G126/><T76/><D106/><U14/><E2/><V19/><F135/><W109/><G109/><T123/><D75/><U97/><E71/><V35/><F70/><W107/><G107/><T62/><D1/><U44/><E127/><V24/><F105/><W42/><G91/><T54/><D54/><U128/><E128/><V52/><F41/><W67/><G17/><N who="0" m="8439" /><D61/><U12/><E122/><V63/><F35/><W38/><G67/><T26/><D62/><U73/><E64/><V7/><F7/><W121/><G121/><T13/><D13/><AGARI ba="0,0" hai="5,11,13,38,42,43,46,47,50,116,119" m="44074" machi="13" ten="30,1000,0" yaku="11,1" doraHai="27" who="3" fromWho="0" sc="182,-10,218,0,314,0,286,10" /><INIT seed="3,0,0,0,3,86" ten="172,218,314,296" oya="3" hai0="92,89,18,55,98,58,64,25,40,97,45,53,121" hai1="59,46,19,41,39,35,68,99,85,31,94,8,79" hai2="96,36,69,52,15,50,131,119,128,66,115,132,62" hai3="82,51,65,42,37,56,102,47,11,1,117,133,114"/><W76/><G114/><T63/><D121/><U78/><E68/><V38/><F115/><W48/><G117/><T125/><D125/><U29/><E59/><V6/><F119/><W108/><G133/><T122/><D122/><U5/><E19/><V60/><F132/><W12/><G102/><T129/><D129/><N who="2" m="49738" /><F96/><W21/><G108/><T130/><D130/><U124/><E124/><V87/><F87/><W71/><G71/><T75/><D75/><U23/><E35/><V88/><F60/><W80/><G1/><T43/><D98/><U70/><E70/><V116/><F116/><W120/><G120/><T54/><D45/><U2/><E85/><V3/><F15/><W28/><G76/><T72/><D72/><U44/><E44/><N who="2" m="27719" /><F88/><W13/><G13/><T112/><D112/><U101/><E78/><V104/><F104/><W103/><G103/><T57/><D57/><U10/><E79/><V49/><F49/><W33/><G33/><T118/><D118/><U126/><E126/><V7/><F3/><W22/><G37/><AGARI ba="0,0" hai="6,7,36,37,38,62,66,69" m="27719,49738" machi="37" ten="30,2000,0" yaku="19,1,54,1" doraHai="86" who="2" fromWho="3" sc="172,0,218,0,314,20,296,-20" /><INIT seed="4,0,0,0,1,53" ten="172,218,334,276" oya="0" hai0="47,31,85,11,23,3,26,27,133,34,17,72,132" hai1="94,57,92,44,55,93,63,84,69,80,29,4,105" hai2="100,0,67,48,99,1,113,108,20,13,124,89,114" hai3="8,109,59,131,14,18,74,30,83,43,97,107,24"/><T101/><D72/><U33/><E105/><V77/><F108/><W19/><G109/><T22/><D101/><U21/><E33/><V76/><F89/><W78/><G131/><T40/><D85/><U12/><E69/><V129/><F129/><W130/><G130/><T45/><D34/><U118/><E118/><V121/><F121/><W46/><G97/><T51/><D47/><U98/><E44/><V115/><F124/><W65/><G107/><T58/><REACH who="0" step="1"/><D58/><REACH who="0" ten="162,218,334,276" step="2"/><U56/><E57/><V64/><F100/><W37/><G59/><T10/><D10/><N who="1" m="4167" /><E98/><V50/><F99/><W36/><G46/><T9/><D9/><U122/><E122/><V87/><F87/><W88/><G8/><T16/><D16/><U38/><E21/><V66/><F77/><W96/><G78/><T2/><D2/><N who="2" m="1130" /><F76/><W106/><G96/><T82/><D82/><U123/><E123/><V54/><F20/><W86/><G86/><T28/><D28/><U7/><E29/><V62/><F114/><W102/><G83/><T120/><D120/><U25/><E80/><V134/><F115/><W128/><G30/><T41/><D41/><U49/><E84/><V103/><F113/><W71/><G43/><T95/><D95/><U39/><E93/><V126/><F103/><W112/><G102/><T117/><D117/><U61/><E92/><V60/><F126/><W81/><G112/><T5/><AGARI ba="0,1" hai="3,5,11,17,22,23,26,27,31,40,45,51,132,133" machi="5" ten="30,3000,0" yaku="1,1,0,1,53,0" doraHai="53" doraHaiUra="90" who="0" fromWho="0" sc="162,40,218,-10,334,-10,276,-10" /><INIT seed="4,1,0,4,2,34" ten="202,208,324,266" oya="0" hai0="95,27,121,50,14,6,8,24,51,18,97,39,78" hai1="48,84,19,56,112,52,2,11,47,15,73,42,79" hai2="26,3,49,113,70,5,29,13,77,45,131,75,37" hai3="132,21,98,61,83,123,35,91,102,7,104,103,66"/><T115/><D39/><U133/><E133/><V72/><F70/><W82/><G35/><T23/><D115/><U59/><E73/><V55/><F113/><W87/><G132/><T120/><D78/><U25/><E112/><V44/><F131/><W105/><G123/><T122/><REACH who="0" step="1"/><D27/><REACH who="0" ten="192,208,324,266" step="2"/><U4/><E25/><V76/><F26/><W114/><G114/><T100/><AGARI ba="1,1" hai="6,8,14,18,23,24,50,51,95,97,100,120,121,122" machi="100" ten="30,6000,0" yaku="1,1,2,1,0,1,53,0" doraHai="34" doraHaiUra="58" who="0" fromWho="0" sc="192,73,208,-21,324,-21,266,-21" /><INIT seed="4,2,0,0,1,26" ten="265,187,303,245" oya="0" hai0="32,122,96,28,50,10,90,121,55,44,45,93,111" hai1="107,75,53,112,113,61,23,49,48,60,128,7,104" hai2="71,65,1,117,101,74,22,79,81,82,12,46,21" hai3="19,0,80,52,20,29,51,98,100,132,95,131,87"/><T124/><D124/><U9/><E75/><V14/><F1/><W27/><G0/><T47/><D111/><U35/><E35/><V135/><F135/><W120/><G132/><T31/><D10/><U8/><E23/><V64/><F101/><W134/><G134/><T83/><D83/><U33/><E33/><V108/><F46/><N who="3" m="27767" /><G131/><T116/><D116/><U67/><E53/><V30/><F71/><W115/><G115/><N who="1" m="44106" /><E128/><V11/><F11/><N who="1" m="4169" /><E7/><V125/><F125/><W4/><G4/><T62/><D32/><U16/><E16/><V99/><F74/><W91/><G120/><T72/><D72/><U56/><E61/><V78/><F117/><W63/><G63/><T94/><D62/><U5/><E5/><V126/><F126/><W69/><G69/><T76/><D76/><U17/><E17/><AGARI ba="2,0" hai="17,19,20,27,29,80,87,91,95,98,100" m="27767" machi="17" ten="30,3900,0" yaku="8,1,52,1,54,1" doraHai="26" who="3" fromWho="1" sc="265,0,187,-45,303,0,245,45" /><INIT seed="5,0,0,5,5,89" ten="265,142,303,290" oya="1" hai0="43,77,125,7,61,64,35,41,129,0,55,29,42" hai1="66,135,15,109,32,46,72,90,69,57,107,1,28" hai2="100,75,86,40,30,60,62,11,105,2,54,63,37" hai3="114,95,111,91,14,126,110,122,16,93,24,22,25"/><U83/><E1/><V132/><F75/><W119/><G122/><T20/><D35/><U73/><E135/><V112/><F132/><W36/><G36/><T19/><D29/><U38/><E57/><V84/><F30/><W127/><G114/><T4/><D129/><U17/><E109/><N who="3" m="41482" /><G119/><T106/><D106/><U65/><E65/><V108/><F108/><W118/><G118/><T113/><D125/><N who="3" m="47625" /><G91/><T98/><D113/><U31/><E90/><V120/><F120/><W23/><G24/><T6/><D98/><U67/><E38/><V128/><F128/><W13/><G13/><T58/><D77/><U92/><E15/><V130/><F130/><W10/><G23/><T79/><D79/><U71/><E32/><V12/><F112/><W70/><G70/><T59/><D0/><U97/><E83/><V87/><F2/><W94/><G94/><T50/><REACH who="0" step="1"/><D4/><AGARI ba="0,0" hai="4,10,14,16,22,25,93,95" m="47625,41482" machi="4" ten="30,7700,0" yaku="18,1,52,2,54,1" doraHai="89" who="3" fromWho="0" sc="265,-77,142,0,303,0,290,77" /><INIT seed="6,0,0,3,1,130" ten="188,142,303,367" oya="2" hai0="43,111,123,112,26,62,109,27,3,122,98,54,2" hai1="77,18,58,48,96,76,102,42,60,94,57,87,82" hai2="107,63,39,91,66,124,118,106,92,20,85,101,41" hai3="59,126,53,135,40,44,25,4,35,0,28,45,110"/><V73/><F118/><W95/><G110/><N who="0" m="41995" /><D98/><U8/><E8/><V104/><F124/><W89/><G135/><T16/><D43/><U69/><E69/><V70/><F73/><W68/><G68/><T49/><D62/><U64/><E18/><V88/><F20/><W6/><G126/><T34/><D54/><U13/><E13/><V131/><F131/><W105/><G105/><T120/><D49/><U15/><E15/><V115/><F115/><W81/><G81/><T79/><D79/><U75/><E75/><V116/><F116/><W56/><G44/><T129/><D129/><U100/><E76/><V61/><F61/><W74/><G74/><T11/><D112/><U117/><E117/><V128/><F128/><W90/><G90/><T52/><D52/><U93/><E58/><V125/><F125/><W51/><G0/><N who="0" m="43" /><D34/><U121/><E121/><N who="0" m="30977" /><T113/><DORA hai="14" /><D113/><U31/><E31/><V12/><F91/><W32/><G56/><T17/><D11/><U36/><E36/><V65/><F65/><W72/><G72/><T10/><D10/><U133/><E133/><V1/><F41/><W67/><G67/><T119/><D119/><U108/><E108/><V19/><F39/><W71/><G71/><T103/><D103/><N who="1" m="39467" /><E96/><N who="2" m="61479" /><F1/><W134/><G134/><T7/><D7/><U50/><E50/><V47/><F47/><AGARI ba="0,0" hai="42,47,48,57,60,64,77,82,87,93,94" m="39467" machi="47" ten="30,1000,0" yaku="8,1" doraHai="130,14" who="1" fromWho="2" sc="188,0,142,10,303,-10,367,0" /><INIT seed="7,0,0,2,0,86" ten="188,152,293,367" oya="3" hai0="107,93,119,35,26,103,130,90,122,36,92,27,113" hai1="2,125,109,111,19,80,123,120,1,129,89,134,126" hai2="73,67,5,0,101,55,99,100,49,18,60,52,32" hai3="63,8,105,128,42,102,71,61,20,68,97,58,74"/><W30/><G74/><T106/><D122/><N who="1" m="46635" /><E80/><V96/><F73/><W98/><G42/><T95/><D36/><U38/><E89/><V135/><F135/><W66/><G128/><T81/><D130/><U9/><E129/><V40/><F32/><W46/><G46/><T94/><D35/><U7/><E38/><V56/><F18/><W115/><G115/><T79/><D113/><U6/><E134/><V127/><F127/><N who="1" m="48649" /><E19/><V64/><F40/><W116/><G116/><T104/><D119/><U76/><E76/><V14/><F0/><N who="1" m="105" /><E9/><V91/><F91/><W31/><G8/><T84/><REACH who="0" step="1"/><D103/><REACH who="0" ten="178,152,293,367" step="2"/><U23/><E23/><V108/><F100/><W133/><G20/><T15/><D15/><U45/><E45/><V65/><F101/><W110/><G133/><T17/><D17/><U75/><E75/><AGARI ba="0,1" hai="26,27,75,79,81,84,90,92,93,94,95,104,106,107" machi="75" ten="50,3200,0" yaku="1,1,52,1,53,0" doraHai="86" doraHaiUra="62" who="0" fromWho="1" sc="178,42,152,-32,293,0,367,0" owari="220,-18.0,120,-38.0,293,9.0,367,47.0" /></mjloggm>